case69test.m
function mpc = case69test
%CASE69TEST

%% MATPOWER Case Format : Version 2
mpc.version = '2';

%%-----  Power Flow Data  -----%%
%% system MVA base
mpc.baseMVA = 100;

%% bus data
%	bus_i	type	Pd	Qd	Gs	Bs	area	Vm	Va	baseKV	zone	Vmax	Vmin
mpc.bus = [
	1	1	87.84	39.78	0	0	2	1.03938	-13.5366	345	1	1.06	0.94;
	2	1	0	0	0	0	2	1.04849	-9.78527	345	1	1.06	0.94;
	3	1	289.8	2.16	0	0	2	1.03071	-12.2764	345	1	1.06	0.94;
	4	1	450	165.6	0	0	1	1.00446	-12.6267	345	1	1.06	0.94;
	5	1	0	0	0	0	1	1.00601	-11.1923	345	1	1.06	0.94;
	6	2	0	0	0	0	1	1.00823	-10.4083	345	1	1.06	0.94;
	7	1	210.42	75.6	0	0	1	0.998397	-12.7556	345	1	1.06	0.94;
	8	1	469.8	158.94	0	0	1	0.997872	-13.3358	345	1	1.06	0.94;
	9	1	5.85	-59.94	0	0	1	1.03833	-14.1784	345	1	1.06	0.94;
	10	1	0	0	0	0	1	1.01784	-8.17087	345	1	1.06	0.94;
	11	1	0	0	0	0	1	1.01339	-8.93697	345	1	1.06	0.94;
	12	1	7.677	79.2	0	0	1	1.00082	-8.99882	345	1	1.06	0.94;
	13	1	0	0	0	0	1	1.01492	-8.92993	345	1	1.06	0.94;
	14	1	0	0	0	0	1	1.01232	-10.7153	345	1	1.06	0.94;
	15	1	288	137.7	0	0	3	1.01619	-11.3454	345	1	1.06	0.94;
	16	1	296.1	29.07	0	0	3	1.03252	-10.0333	345	1	1.06	0.94;
	17	2	0	0	0	0	2	1.03424	-11.1164	345	1	1.06	0.94;
	18	1	142.2	27	0	0	2	1.03157	-11.9862	345	1	1.06	0.94;
	19	1	0	0	0	0	3	1.05011	-5.41007	345	1	1.06	0.94;
	20	1	612	92.7	0	0	3	0.991011	-6.82118	345	1	1.06	0.94;
	21	1	246.6	103.5	0	0	3	1.03232	-7.62875	345	1	1.06	0.94;
	22	1	0	0	0	0	3	1.05014	-3.18312	345	1	1.06	0.94;
	23	1	222.75	76.14	0	0	3	1.04515	-3.38128	345	1	1.06	0.94;
	24	1	277.74	-82.98	0	0	3	1.038	-9.91376	345	1	1.06	0.94;
	25	1	201.6	42.48	0	0	2	1.05768	-8.36924	345	1	1.06	0.94;
	26	1	125.1	15.3	0	0	2	1.05256	-9.43877	345	1	1.06	0.94;
	27	1	252.9	67.95	0	0	2	1.03834	-11.3622	345	1	1.06	0.94;
	28	2	185.4	24.84	0	0	3	1.05037	-5.92836	345	1	1.06	0.94;
	29	1	255.15	24.21	0	0	3	1.05011	-3.16987	345	1	1.06	0.94;
	30	2	0	0	0	0	2	1.0499	-7.37047	345	1	1.06	0.94;
	31	3	8.28	4.14	0	0	1	0.982	0	345	1	1.06	0.94;
	32	2	0	0	0	0	1	0.9841	-0.188437	345	1	1.06	0.94;
	33	2	0	0	0	0	3	0.9972	-0.193174	345	1	1.06	0.94;
	34	2	0	0	0	0	3	1.0123	-1.63112	345	1	1.06	0.94;
	35	2	0	0	0	0	3	1.0494	1.77651	345	1	1.06	0.94;
	36	2	0	0	0	0	3	1.0636	4.46844	345	1	1.06	0.94;
	37	2	0	0	0	0	2	1.0275	-1.5829	345	1	1.06	0.94;
	38	2	0	0	0	0	3	1.0265	3.89282	345	1	1.06	0.94;
	39	2	993.6	225	0	0	1	1.03	-14.5353	345	1	1.06	0.94;
];

%% generator data
%	bus	Pg	Qg	Qmax	Qmin	Vg	mBase	status	Pmax	Pmin	Pc1	Pc2	Qc1min	Qc1max	Qc2min	Qc2max	ramp_agc	ramp_10	ramp_30	ramp_q	apf
mpc.gen = [
	30	250	161.762	400	140	1.0499	100	1	1040	0	0	0	0	0	0	0	0	0	0	0	0;
	31	677.871	221.574	300	-100	0.982	100	1	646	0	0	0	0	0	0	0	0	0	0	0	0;
	32	650	206.965	300	150	0.9841	100	1	725	0	0	0	0	0	0	0	0	0	0	0	0;
	33	632	108.293	250	0	0.9972	100	0	652	0	0	0	0	0	0	0	0	0	0	0	0;
	34	508	166.688	167	0	1.0123	100	1	508	0	0	0	0	0	0	0	0	0	0	0	0;
	35	650	210.661	300	-100	1.0494	100	1	687	0	0	0	0	0	0	0	0	0	0	0	0;
	36	560	100.165	240	0	1.0636	100	1	580	0	0	0	0	0	0	0	0	0	0	0	0;
	37	540	-1.36945	250	0	1.0275	100	1	564	0	0	0	0	0	0	0	0	0	0	0	0;
	38	830	21.7327	300	-150	1.0265	100	1	865	0	0	0	0	0	0	0	0	0	0	0	0;
	39	1000	78.4674	300	-100	1.03	100	1	1100	0	0	0	0	0	0	0	0	0	0	0	0;
	6	-30	-15	0	-15	1.01	100	1	0	-30	0	0	0	0	0	0	0	0	0	0	0;
	10	-30	-12	0	-12	1.054	100	1	0	-30	0	0	0	0	0	0	0	0	0	0	0;
	17	-20	-15	0	-30	1.02	100	1	0	-40	0	0	0	0	0	0	0	0	0	0	0;
	28	-30	-15	0	-30	1.04	100	1	0	-60	0	0	0	0	0	0	0	0	0	0	0;
	19	-30	-10	0	-10	1.04	100	1	0	-30	0	0	0	0	0	0	0	0	0	0	0;
];

%% branch data
%	fbus	tbus	r	x	b	rateA	rateB	rateC	ratio	angle	status	angmin	angmax
mpc.branch = [
	1	2	0.0035	0.0411	0.6987	660	600	600	0	0	1	-360	360;
	1	39	0.001	0.025	0.75	949.999988	1000	1000	0	0	1	-360	360;
	2	3	0.0013	0.0151	0.2572	474.999994	500	500	0	0	1	-360	360;
	2	25	0.007	0.0086	0.146	474.999994	500	500	0	0	1	-360	360;
	2	30	0	0.0181	0	854.999989	900	2500	1.025	0	1	-360	360;
	3	4	0.0013	0.0213	0.2214	474.999994	500	500	0	0	1	-360	360;
	3	18	0.0011	0.0133	0.2138	474.999994	500	500	0	0	1	-360	360;
	4	5	0.0008	0.0128	0.1342	569.999993	600	600	0	0	1	-360	360;
	4	14	0.0008	0.0129	0.1382	474.999994	500	500	0	0	1	-360	360;
	5	6	0.0002	0.0026	0.0434	1139.99999	1200	1200	0	0	1	-360	360;
	5	8	0.0008	0.0112	0.1476	854.999989	900	900	0	0	1	-360	360;
	6	7	0.0006	0.0092	0.113	854.999989	900	900	0	0	1	-360	360;
	6	11	0.0007	0.0082	0.1389	455.999994	480	480	0	0	1	-360	360;
	6	31	0	0.025	0	1709.99998	1800	1800	1.07	0	1	-360	360;
	7	8	0.0004	0.0046	0.078	854.999989	900	900	0	0	1	-360	360;
	8	9	0.0023	0.0363	0.3804	854.999989	900	900	0	0	1	-360	360;
	9	39	0.001	0.025	1.2	854.999989	900	900	0	0	1	-360	360;
	10	11	0.0004	0.0043	0.0729	569.999993	600	600	0	0	1	-360	360;
	10	13	0.0004	0.0043	0.0729	569.999993	600	600	0	0	0	-360	360;
	10	32	0	0.02	0	854.999989	900	2500	1.07	0	1	-360	360;
	12	11	0.0016	0.0435	0	474.999994	500	500	1.006	0	1	-360	360;
	12	13	0.0016	0.0435	0	474.999994	500	500	1.006	0	1	-360	360;
	13	14	0.0009	0.0101	0.1723	569.999993	600	600	0	0	1	-360	360;
	14	15	0.0018	0.0217	0.366	569.999993	600	600	0	0	1	-360	360;
	15	16	0.0009	0.0094	0.171	569.999993	600	600	0	0	1	-360	360;
	16	17	0.0007	0.0089	0.1342	569.999993	600	600	0	0	1	-360	360;
	16	19	0.0016	0.0195	0.304	569.999993	600	2500	0	0	1	-360	360;
	16	21	0.0008	0.0135	0.2548	569.999993	600	600	0	0	1	-360	360;
	16	24	0.0003	0.0059	0.068	569.999993	600	600	0	0	1	-360	360;
	17	18	0.0007	0.0082	0.1319	569.999993	600	600	0	0	1	-360	360;
	17	27	0.0013	0.0173	0.3216	569.999993	600	600	0	0	1	-360	360;
	19	20	0.0007	0.0138	0	854.999989	900	2500	1.06	0	1	-360	360;
	19	33	0.0007	0.0142	0	854.999989	900	2500	1.07	0	1	-360	360;
	20	34	0.0009	0.018	0	854.999989	900	2500	1.009	0	1	-360	360;
	21	22	0.0008	0.014	0.2565	854.999989	900	900	0	0	1	-360	360;
	22	23	0.0006	0.0096	0.1846	569.999993	600	600	0	0	1	-360	360;
	22	35	0	0.0143	0	854.999989	900	2500	1.025	0	1	-360	360;
	23	24	0.0022	0.035	0.361	569.999993	600	600	0	0	1	-360	360;
	23	36	0.0005	0.0272	0	854.999989	900	2500	1	0	1	-360	360;
	25	26	0.0032	0.0323	0.531	569.999993	600	600	0	0	1	-360	360;
	25	37	0.0006	0.0232	0	854.999989	900	2500	1.025	0	1	-360	360;
	26	27	0.0014	0.0147	0.2396	569.999993	600	600	0	0	1	-360	360;
	26	28	0.0043	0.0474	0.7802	569.999993	600	600	0	0	1	-360	360;
	26	29	0.0057	0.0625	1.029	569.999993	600	600	0	0	1	-360	360;
	28	29	0.0014	0.0151	0.249	569.999993	600	600	0	0	1	-360	360;
	29	38	0.0008	0.0156	0	1139.99999	1200	2500	1.025	0	1	-360	360;
];

%%-----  OPF Data  -----%%
%% generator cost data
%	1	startup	shutdown	n	x1	y1	...	xn	yn
%	2	startup	shutdown	n	c(n-1)	...	c0
mpc.gencost = [
	2	0	0	10	0	0	0	0	0	0	0	0.01	0.3	0.2;
	2	0	0	10	0	0	0	0	0	0	0	0.01	0.3	0.2;
	2	0	0	10	0	0	0	0	0	0	0	0.01	0.3	0.2;
	2	0	0	10	0	0	0	0	0	0	0	0.01	0.3	0.2;
	2	0	0	10	0	0	0	0	0	0	0	0.01	0.3	0.2;
	2	0	0	10	0	0	0	0	0	0	0	0.01	0.3	0.2;
	2	0	0	10	0	0	0	0	0	0	0	0.01	0.3	0.2;
	2	0	0	10	0	0	0	0	0	0	0	0.01	0.3	0.2;
	2	0	0	10	0	0	0	0	0	0	0	0.01	0.3	0.2;
	2	0	0	10	0	0	0	0	0	0	0	0.01	0.3	0.2;
	1	0	0	5	-30	-3000	-25	-2000	-20	-1000	-10	-800	0	0;
	1	0	0	5	-30	-3000	-25	-2000	-20	-1000	-10	-800	0	0;
	1	0	0	5	-40	-512	-30	-500	-20	-400	-10	-20	0	0;
	1	0	0	5	-30	-4000	-25	-3100	-20	-2600	-10	-1800	0	0;
	1	0	0	5	-30	-1500	-25	-1450	-20	-1400	-15	-1000	0	0;
];
